[o:Set:
@hash}I"environment-version:ETTI"environment-paths;TTI"0processors:type=text/css&file_type=text/css;TTI"file-digest:///Users/MCV/Development/Learn%20Forks/rails-dynamic-request-readme-web-0217/app/assets/stylesheets/application.css;TTI">processors:type=text/css&file_type=text/css&pipeline=self;TTI"tfile-digest:///Users/MCV/Development/Learn%20Forks/rails-dynamic-request-readme-web-0217/app/assets/stylesheets;TTF