I"Þ/Users/MCV/Development/Learn%20Forks/rails-dynamic-request-readme-web-0217/app/assets/javascripts/application.js?type=application/javascript&pipeline=self&id=e493cf31a9b57ad36a48f2def1cada2a241e25b00d07ba7fc6a6c84c7ae970d8:ET