I"Ñ/Users/MCV/Development/Learn%20Forks/rails-dynamic-request-readme-web-0217/app/assets/stylesheets/application.css?type=text/css&pipeline=self&id=3b5139867952d5ad95b532bb27c96c74300174d063045bd2b180e8386167d5d4:ET