I"Ð/Users/MCV/Development/Learn%20Forks/rails-dynamic-request-readme-web-0217/app/assets/javascripts/application.js?type=application/javascript&id=ec962947589562d32f1be0fc0e0e4b5176732090b5431bebbd388e8b1a6f876f:ET