I"Ã/Users/MCV/Development/Learn%20Forks/rails-dynamic-request-readme-web-0217/app/assets/stylesheets/application.css?type=text/css&id=265fe5e57934073b702131fa7f5671be127dca3250a8a847e9a65b54b173d1e5:ET